22
 energy: -33.772686324482 gnorm: 0.000190752086 xtb: 6.5.1 (579679a)
C            1.53645308496868       11.26861969444976      106.50388772538777
C            1.05268163148001       11.22646488036187      105.20878662834384
C           -0.15575317301540       10.60627350749165      104.92102450874800
C           -0.88803107961556       10.05299625515912      105.96312271784950
C           -0.42564269305121       10.10961443122996      107.26672876824159
C            0.81429702197020       10.69769515479867      107.53876908775527
H            2.48068886290567       11.73577632982495      106.73403419609539
H            1.62697943461696       11.67243045109400      104.41119018439365
H           -1.83993029418977        9.57853139712617      105.78074807435401
O           -1.18982202941282        9.56447395686334      108.27221207824712
H           -1.00686902928579       10.02254423964641      109.10237634130557
O            1.31872634816145       10.73980952765014      108.81790017283566
H            0.97575992209321        9.99376046952869      109.32634483103357
C           -0.65314807535305       10.49100471676879      103.50901885821999
H           -1.73651159918675       10.61754987405142      103.48392288500973
H           -0.19140394002938       11.25630654038049      102.88544360265269
C           -0.30565269516022        9.11702614960332      102.91923167161090
H           -0.77998203615967        9.01371149525097      101.93876264789020
H           -0.71369116695477        8.33327853820042      103.58078085370322
N            1.13036268119587        9.01374987745965      102.72205794310402
H            1.60763002413256        9.12728254359342      103.61115863865986
H            1.37285879988966        8.10109996946684      102.35249758455815
