42
 energy: -62.222955727522 gnorm: 0.000077278110 xtb: 6.5.1 (579679a)
C           24.95165015345410       41.36107876840614       41.44246757599745
C           25.60126190450358       40.26491234418527       40.89948268337876
C           24.88778400228125       39.27252462067626       40.24423513632993
C           23.50905503608238       39.39664828362530       40.13302712812320
C           22.84550291062196       40.48716554995640       40.67031230494464
C           23.57906791146488       41.47920842580947       41.33271059447313
O           21.49586513212291       40.59077894713915       40.55567051456407
O           22.86828917850106       42.53986264520472       41.85037230601876
C           25.59887036626385       38.10587581862412       39.62236328215609
C           26.01654061021389       38.43377507671028       38.18569395047752
N           26.85715832873364       37.37785331684540       37.66232038456924
H           25.51426045368664       42.12919211661895       41.95645474131503
H           26.67338037423290       40.18291569137267       40.99311299772689
H           22.92416258427998       38.64325079312464       39.62956387360911
H           21.22518384603753       41.40937070228460       40.99368480200642
H           23.47750489152131       43.14692415305699       42.28294673891882
H           26.49797763901586       37.86346645809962       40.19007708182601
H           24.94939285268470       37.22902943675081       39.61432646757639
H           26.60111787353478       39.35944570172972       38.18512797103368
H           25.11680103545551       38.60906565219098       37.56900880678198
H           26.38562861575058       36.48095812425778       37.71906027529549
C           27.29323700652021       37.56380531965425       36.29802616679214
H           26.56874062145943       38.19464061669665       35.72755792812914
O           27.35504398360149       36.29232000723413       35.71222990496231
H           27.90381194589018       36.34577183562463       34.91974229027649
C           28.66984476114138       38.28583801849046       36.27364266589583
H           28.51344109259182       39.26672732161348       36.73305167388132
C           29.67978241240034       37.50615457690074       37.11077073319196
H           30.67617744382234       37.92607330438936       36.99425494763686
H           29.38740271677473       37.55716865332097       38.15520938129268
H           29.69410413557370       36.45818429234296       36.82372665053642
C           29.07673351252692       38.49246983661788       34.83876236925919
C           28.60534816612651       39.60793738282210       34.15230833702320
C           29.85691097184654       37.57208812775983       34.14670839608318
C           28.90800071270778       39.80312578127081       32.81768643621397
H           27.99699833851886       40.33226052275762       34.67591102603173
C           30.16308904719349       37.76777921243549       32.81009075979610
H           30.24756619302842       36.70133515567435       34.65170548307405
C           29.68926358749232       38.88154080076079       32.14059273433772
H           28.53510441588271       40.67724837461684       32.30411142936710
H           30.77545246389959       37.04449442030601       32.29131600152466
H           29.92898289056890       39.03288754203940       31.09866044757550
