21
 energy: -33.407911586703 gnorm: 0.000216500973 xtb: 6.5.1 (579679a)
C            1.50390659456068       10.93400776637166      106.56156442073721
C            1.06934440118908       10.89718345888093      105.25691791322804
C           -0.25386017440425       10.54183390745439      104.94080097793496
C           -1.10815407489190       10.19812123125653      106.00487011575977
C           -0.67949966590064       10.24919382645840      107.31198981476042
C            0.63496348345873       10.62750486537969      107.60050780415419
H            2.52993599524648       11.20274316431478      106.79475771084086
H            1.75503793961107       11.09800822555487      104.44925103261397
H           -2.12565114411087        9.89211079549718      105.80826300260848
O           -1.53937077934741        9.93913701113143      108.35111147210513
H           -1.01220324280008       10.02783951117508      109.15500351844275
O            1.02496547125998       10.67734939326660      108.95423817484998
H            1.96675661846602       10.86947406333142      108.95885929401192
C           -0.66199042145907       10.40159954408976      103.55404248893382
H           -1.74698225855798       10.34245827316890      103.44946786033371
H           -0.26872280783175       11.19339963849131      102.91663526897462
C           -0.03318612106549        8.98458180305294      102.87016180594456
H           -0.76019130051029        8.85365820101865      102.02028185135494
H           -0.24851926417409        8.20823956697766      103.61839472468516
N            1.29084934207010        8.99280714469306      102.57020149315794
H            1.45257140919054        9.59874860843530      101.75267925456691
