21
 energy: -28.470792677354 gnorm: 0.000202198104 xtb: 6.5.1 (579679a)
C           16.19950361844938       23.08084981572853       70.93274373699091
C           17.38584547733833       23.66846856606714       71.31454686401369
C           17.81640115686207       23.59857117565161       72.65775453755643
C           17.01897890114355       22.90566421618604       73.59149827171034
C           15.83157919660150       22.32879541485425       73.19625296645107
C           15.41896959047401       22.41207680239649       71.87058362186809
C           18.93548515230042       24.59367004459497       73.14273307983619
C           18.86263003369866       25.10985949165890       74.55445782399524
C           19.57317756079282       23.33065617697909       72.85373943818463
O           19.91058209674832       22.50905064931753       73.82217640954731
H           15.87514724924626       23.14463374121500       69.90610922654724
H           17.98376394208502       24.20037772099227       70.58904633753912
H           17.34661760325378       22.82525268242007       74.61629053005292
H           19.07536971392845       25.37371738391472       72.40109307105074
H           18.95379985213023       24.31064854812380       75.28322127504892
H           17.93433423584260       25.65086483394118       74.71832623572199
H           14.49110786807649       21.95243383127289       71.56685905112577
H           15.22314383081349       21.80909213972624       73.91949327046133
H           19.94847371719920       23.13789829955005       71.85237534628295
H           19.68797151886102       25.80222785767136       74.70810260713233
H           20.23924517415429       21.64654800773766       73.52835933888265
